[Format]      =  4.0
[Frequency]   =  1
[Precision]   =  1e-008
[MinAngle]    =  18
[DoSmartMesh] =  1
[Depth]       =  92.592592499999995
[LengthUnits] =  millimeters
[ProblemType] =  planar
[Coordinates] =  cartesian
[ACSolver]    =  1
[PrevType]    =  0
[PrevSoln]    =  ""
[Comment]     =  "Add comments here."
[PointProps]   = 0
[BdryProps]   = 1
  <BeginBdry>
    <BdryName> = "BC:A=0"
    <BdryType> = 0
    <A_0> = 0
    <A_1> = 0
    <A_2> = 0
    <Phi> = 0
    <c0> = 0
    <c0i> = 0
    <c1> = 0
    <c1i> = 0
    <Mu_ssd> = 0
    <Sigma_ssd> = 0
    <innerangle> = 0
    <outerangle> = 0
  <EndBdry>
[BlockProps]  = 4
  <BeginBlock>
    <BlockName> = "Air"
    <Mu_x> = 1
    <Mu_y> = 1
    <H_c> = 0
    <H_cAngle> = 0
    <J_re> = 0
    <J_im> = 0
    <Sigma> = 0
    <d_lam> = 0
    <Phi_h> = 0
    <Phi_hx> = 0
    <Phi_hy> = 0
    <LamType> = 0
    <LamFill> = 1
    <NStrands> = 0
    <WireD> = 0
    <BHPoints> = 0
  <EndBlock>
  <BeginBlock>
    <BlockName> = "Copper"
    <Mu_x> = 1
    <Mu_y> = 1
    <H_c> = 0
    <H_cAngle> = 0
    <J_re> = 0
    <J_im> = 0
    <Sigma> = 58
    <d_lam> = 0
    <Phi_h> = 0
    <Phi_hx> = 0
    <Phi_hy> = 0
    <LamType> = 0
    <LamFill> = 1
    <NStrands> = 0
    <WireD> = 0
    <BHPoints> = 0
  <EndBlock>
  <BeginBlock>
    <BlockName> = "Aluminum"
    <Mu_x> = 1
    <Mu_y> = 1
    <H_c> = 0
    <H_cAngle> = 0
    <J_re> = 0
    <J_im> = 0
    <Sigma> = 47.619047619047613
    <d_lam> = 0
    <Phi_h> = 0
    <Phi_hx> = 0
    <Phi_hy> = 0
    <LamType> = 0
    <LamFill> = 1
    <NStrands> = 0
    <WireD> = 0
    <BHPoints> = 0
  <EndBlock>
  <BeginBlock>
    <BlockName> = "M19Gauge29"
    <Mu_x> = 0
    <Mu_y> = 0
    <H_c> = 0
    <H_cAngle> = 0
    <J_re> = 0
    <J_im> = 0
    <Sigma> = 0
    <d_lam> = 0.35560000000000003
    <Phi_h> = 0
    <Phi_hx> = 0
    <Phi_hy> = 0
    <LamType> = 0
    <LamFill> = 0.94999999999999996
    <NStrands> = 0
    <WireD> = 0
    <BHPoints> = 185
      0	0
      0.040393502519099997	3.7801784999999999
      0.080769420879899995	7.5603569999999998
      0.121110170924	11.3405355
      0.16139816849300001	15.120714
      0.18161589101100001	17.020108499999999
      0.20181362516000001	18.919502999999999
      0.22198914029700001	20.818897499999999
      0.242140205779	22.718292000000002
      0.25571683711400001	23.999402249999999
      0.26928064637900001	25.2805125
      0.28283094912200002	26.561622750000002
      0.296367060889	27.842732999999999
      0.30699838653700001	28.849908249999999
      0.31762018555799998	29.857083500000002
      0.32823212536800001	30.864258750000001
      0.33883387338499998	31.871434000000001
      0.34801899151999999	32.744836499999998
      0.35719597842200002	33.618239000000003
      0.36636461720800001	34.4916415
      0.37552469099399999	35.365043999999997
      0.38400030037600003	36.173929999999999
      0.392468205071	36.982816
      0.40092823279500001	37.791702000000001
      0.40938021126200003	38.600588000000002
      0.41756330690499999	39.384491500000003
      0.425738524201	40.168394999999997
      0.43390570633999997	40.952298499999998
      0.44206469651300001	41.736201999999999
      0.45022095744399998	42.520646249999999
      0.45836870094299997	43.305090499999999
      0.46650776987600001	44.089534749999999
      0.47463800710699999	44.873978999999999
      0.482955979122	45.677436
      0.49126435245299999	46.480893000000002
      0.49956295826199998	47.284350000000003
      0.50785162771000003	48.087806999999998
      0.51647926459799998	48.925164250000002
      0.52509573443400004	49.762521499999998
      0.53370084609400004	50.599878750000002
      0.54229440845300003	51.437235999999999
      0.55135899081899997	52.321732249999997
      0.560410248444	53.206228500000002
      0.56944795607499998	54.09072475
      0.57847188845599995	54.975220999999998
      0.58809195642199996	55.919663999999997
      0.59769578757800002	56.864106999999997
      0.60728310769500005	57.808549999999997
      0.61685364254599995	58.752992999999996
      0.62714704886700001	59.770655750000003
      0.63742030493900004	60.788318500000003
      0.64767306767999999	61.805981250000002
      0.65790499400900004	62.823644000000002
      0.66899515477100002	63.92905425
      0.68005988649500004	65.034464499999999
      0.69109874948399996	66.139874750000004
      0.70211130403800004	67.245284999999996
      0.71413296428799999	68.455065250000004
      0.72612201060100001	69.664845499999998
      0.73807786660399999	70.874625750000007
      0.74999995592199997	72.084406000000001
      0.76297300785300004	73.418329499999999
      0.775634769861	74.752252999999996
      0.78797914050899998	76.086176499999993
      0.80000001836099999	77.420100000000005
      0.81301167345299996	78.90258025
      0.82568683512300001	80.385060499999994
      0.83801860418399998	81.867540750000003
      0.85000008144500006	83.350020999999998
      0.86305669685599995	85.012418749999995
      0.87574779662799995	86.674816500000006
      0.888065056114	88.337214250000002
      0.90000015066200001	89.999611999999999
      0.91311257847299998	91.884047249999995
      0.92582384683399999	93.768482500000005
      0.938123285882	95.65291775
      0.95000022575499998	97.537352999999996
      0.96318596803099998	99.703366250000002
      0.97592415289699996	101.86937949999999
      0.98820039197999998	104.03539275
      1.0000002969099999	106.20140600000001
      1.0132866972900001	108.7381705
      1.02606225208	111.274935
      1.03830683818	113.8116995
      1.05000033252	116.34846400000001
      1.06342863335	119.39818025
      1.0762571219199999	122.4478965
      1.08845720079	125.49761275
      1.10000027255	128.54732899999999
      1.11362907216	132.3518545
      1.12653208745	136.15638000000001
      1.1386691386500001	139.9609055
      1.1500000459899999	143.76543100000001
      1.16390387023	148.76261550000001
      1.17690759696	153.75980000000001
      1.1889574522599999	158.75698449999999
      1.19999966227	163.75416899999999
      1.21425500668	170.78266625000001
      1.22738361095	177.81116349999999
      1.2393201541600001	184.83966075000001
      1.24999931536	191.86815799999999
      1.2646530576899999	202.60949525000001
      1.2779162158599999	213.3508325
      1.2897209086100001	224.09216975000001
      1.2999992547400001	234.833507
      1.3150287246800001	252.75257250000001
      1.3284087368099999	270.67163799999997
      1.34008406116	288.59070350000002
      1.34999946779	306.50976900000001
      1.3652842322100001	338.69612725000002
      1.37872905807	370.88248549999997
      1.3903091544999999	403.06884374999998
      1.39999973061	435.255202
      1.4153113290399999	495.16939350000001
      1.4287325819500001	555.08358499999997
      1.440287455	614.99777649999999
      1.4499999138499999	674.911968
      1.4650178894400001	783.26536825000005
      1.4783013058300001	891.61876849999999
      1.48993405237	999.97216875000004
      1.50000001839	1108.3255690000001
      1.5144185297499999	1284.51554375
      1.5274764870899999	1460.7055184999999
      1.53929622758	1636.8954932500001
      1.55000008838	1813.085468
      1.56379869711	2060.1184562499998
      1.5766804428000001	2307.1514444999998
      1.5887220049599999	2554.1844327499998
      1.60000006307	2801.2174209999998
      1.6135017779800001	3114.3263449999999
      1.6263280705300001	3427.4352690000001
      1.6384903429	3740.5441930000002
      1.6499999972799999	4053.6531169999998
      1.6634154945899999	4438.0165602500001
      1.6762083086999999	4822.3800035000004
      1.6883969722200001	5206.7434467499997
      1.7000000177600001	5591.10689
      1.7133842241299999	6055.4097707499996
      1.7261879114400001	6519.7126515
      1.7383976459999999	6984.0155322500004
      1.74999999411	7448.318413
      1.7634359308900001	8013.4427272499997
      1.77624916625	8578.5670415000004
      1.7884378189200001	9143.6913557499993
      1.8000000076	9708.81567
      1.8135056489000001	10403.344656200001
      1.8263576964499999	11097.873642500001
      1.83853090176	11792.4026288
      1.8500000163700001	12486.931615
      1.86383276338	13375.569622200001
      1.8768406764900001	14264.207629500001
      1.888928261	15152.845636800001
      1.90000002223	16041.483644
      1.91483103513	17343.467889
      1.92828510969	18645.452133999999
      1.9400966255700001	19947.436378999999
      1.94999996248	21249.420623999998
      1.9660187278900001	23765.439437500001
      1.9797604686600001	26281.458251
      1.9911219600800001	28797.477064499999
      1.9999999774199999	31313.495878000002
      2.01558566376	36882.483627699999
      2.02890239705	42451.471377499998
      2.0402679269699999	48020.459127299997
      2.0500000032100001	53589.446877000002
      2.0635336891599998	62311.456308000001
      2.0761276184200002	71033.465739000007
      2.0881577419299999	79755.475170000005
      2.1000000106700001	88477.484601000004
      2.1122908943900001	97440.466085699998
      2.1247406622499998	106403.44757
      2.1373201021599999	115366.429055
      2.1500000020300001	124329.41054
      2.1626625654099998	133239.20022999999
      2.1752886017100002	142148.98991999999
      2.1877703359999998	151058.77961
      2.1999999933200001	159968.5693
      2.2126403241600001	169414.32804299999
      2.22508058305	178860.086786
      2.2374805501599999	188305.84552900001
      2.25000000567	197751.604272
      2.2622556443600002	206819.891041
      2.2747207343800002	215888.17780999999
      2.2873254586399998	224956.46457800001
      2.2999999999999998	234024.75134700001
  <EndBlock>
[CircuitProps]  = 22
  <BeginCircuit>
    <CircuitName> = "rA"
    <TotalAmps_re> = 0
    <TotalAmps_im> = 0
    <CircuitType> = 0
  <EndCircuit>
  <BeginCircuit>
    <CircuitName> = "rB"
    <TotalAmps_re> = 0
    <TotalAmps_im> = 0
    <CircuitType> = 0
  <EndCircuit>
  <BeginCircuit>
    <CircuitName> = "rC"
    <TotalAmps_re> = 0
    <TotalAmps_im> = 0
    <CircuitType> = 0
  <EndCircuit>
  <BeginCircuit>
    <CircuitName> = "rD"
    <TotalAmps_re> = 0
    <TotalAmps_im> = 0
    <CircuitType> = 0
  <EndCircuit>
  <BeginCircuit>
    <CircuitName> = "rE"
    <TotalAmps_re> = 0
    <TotalAmps_im> = 0
    <CircuitType> = 0
  <EndCircuit>
  <BeginCircuit>
    <CircuitName> = "rF"
    <TotalAmps_re> = 0
    <TotalAmps_im> = 0
    <CircuitType> = 0
  <EndCircuit>
  <BeginCircuit>
    <CircuitName> = "rG"
    <TotalAmps_re> = 0
    <TotalAmps_im> = 0
    <CircuitType> = 0
  <EndCircuit>
  <BeginCircuit>
    <CircuitName> = "rH"
    <TotalAmps_re> = 0
    <TotalAmps_im> = 0
    <CircuitType> = 0
  <EndCircuit>
  <BeginCircuit>
    <CircuitName> = "rI"
    <TotalAmps_re> = 0
    <TotalAmps_im> = 0
    <CircuitType> = 0
  <EndCircuit>
  <BeginCircuit>
    <CircuitName> = "rJ"
    <TotalAmps_re> = 0
    <TotalAmps_im> = 0
    <CircuitType> = 0
  <EndCircuit>
  <BeginCircuit>
    <CircuitName> = "rK"
    <TotalAmps_re> = 0
    <TotalAmps_im> = 0
    <CircuitType> = 0
  <EndCircuit>
  <BeginCircuit>
    <CircuitName> = "rL"
    <TotalAmps_re> = 0
    <TotalAmps_im> = 0
    <CircuitType> = 0
  <EndCircuit>
  <BeginCircuit>
    <CircuitName> = "rM"
    <TotalAmps_re> = 0
    <TotalAmps_im> = 0
    <CircuitType> = 0
  <EndCircuit>
  <BeginCircuit>
    <CircuitName> = "rN"
    <TotalAmps_re> = 0
    <TotalAmps_im> = 0
    <CircuitType> = 0
  <EndCircuit>
  <BeginCircuit>
    <CircuitName> = "rO"
    <TotalAmps_re> = 0
    <TotalAmps_im> = 0
    <CircuitType> = 0
  <EndCircuit>
  <BeginCircuit>
    <CircuitName> = "rP"
    <TotalAmps_re> = 0
    <TotalAmps_im> = 0
    <CircuitType> = 0
  <EndCircuit>
  <BeginCircuit>
    <CircuitName> = "dU"
    <TotalAmps_re> = 63.948700000000002
    <TotalAmps_im> = 0
    <CircuitType> = 1
  <EndCircuit>
  <BeginCircuit>
    <CircuitName> = "dV"
    <TotalAmps_re> = -31.974350000000001
    <TotalAmps_im> = -55.38119873898993
    <CircuitType> = 1
  <EndCircuit>
  <BeginCircuit>
    <CircuitName> = "dW"
    <TotalAmps_re> = -31.974350000000001
    <TotalAmps_im> = 55.38119873898993
    <CircuitType> = 1
  <EndCircuit>
  <BeginCircuit>
    <CircuitName> = "bU"
    <TotalAmps_re> = 63.948700000000002
    <TotalAmps_im> = 0
    <CircuitType> = 1
  <EndCircuit>
  <BeginCircuit>
    <CircuitName> = "bV"
    <TotalAmps_re> = -31.974350000000001
    <TotalAmps_im> = -55.38119873898993
    <CircuitType> = 1
  <EndCircuit>
  <BeginCircuit>
    <CircuitName> = "bW"
    <TotalAmps_re> = -31.974350000000001
    <TotalAmps_im> = 55.38119873898993
    <CircuitType> = 1
  <EndCircuit>
[NumPoints] = 492
-50.129243039623233	2.3535742186925432	0	0
-50.18446292756861	0	0	0
-50.702861768014607	2.4290925569481745	0	0
-50.794908030478553	5.1201805011846862	0	0
-77.771635906899164	5.1201805011846862	0	0
-77.27321249547478	10.173211421630819	0	0
-50.702861768014607	6.6751583865876079	0	0
-50.129243039623233	-2.3535742186925432	0	0
-50.702861768014607	-2.4290925569481745	0	0
-50.794908030478553	-5.1201805011846862	0	0
-77.771635906899164	-5.1201805011846862	0	0
-77.27321249547478	-10.173211421630819	0	0
-50.702861768014607	-6.6751583865876079	0	0
-49.030280336153517	-10.701024693304227	0	0
-48.474468820184825	-12.98869477389616	0	0
-49.603899064544891	-10.776543031559857	0	0
-50.38931373868639	-8.2009750111628286	0	0
-76.446831903293315	-15.183065960128562	0	0
-47.811980672433684	-15.247780937150711	0	0
-48.346508232434957	-15.469189501965438	0	0
-47.738913282548062	-18.092404173874815	0	0
-73.796431447154987	-25.074495122840549	0	0
-72.007170763929679	-29.826346718535092	0	0
-47.247545528965233	-19.570574146937687	0	0
-44.589985054144243	-23.026366456731758	0	0
-43.461019770552802	-25.092231463784302	0	0
-45.124512614145516	-23.247775021546481	0	0
-46.549770987880962	-20.963247629251594	0	0
-69.912302639841045	-34.451611567461896	0	0
-42.2364108354517	-27.102876582891469	0	0
-42.695420057197339	-27.455086746468119	0	0
-41.42959048669627	-29.831660401226952	0	0
-64.792122138656367	-43.320024339437254	0	0
-61.833959342298883	-47.446865776939674	0	0
-40.572387142377622	-31.132287621076916	0	0
-37.110955979129457	-33.782499399002795	0	0
-35.485774046288668	-35.485774046288661	0	0
-37.569965200875096	-34.134709562579445	0	0
-39.537938271385237	-32.296909564811571	0	0
-58.613365487026421	-51.372336780452756	0	0
-33.782499399002802	-37.11095597912945	0	0
-34.134709562579452	-37.569965200875089	0	0
-32.296909564811578	-39.537938271385229	0	0
-51.372336780452763	-58.613365487026414	0	0
-47.446865776939688	-61.833959342298861	0	0
-31.132287621076923	-40.572387142377622	0	0
-27.102876582891479	-42.2364108354517	0	0
-25.092231463784312	-43.461019770552795	0	0
-27.455086746468126	-42.695420057197339	0	0
-29.831660401226962	-41.429590486696263	0	0
-43.320024339437268	-64.792122138656353	0	0
-23.026366456731768	-44.589985054144243	0	0
-23.247775021546495	-45.124512614145516	0	0
-20.963247629251605	-46.549770987880954	0	0
-34.45161156746191	-69.91230263984103	0	0
-29.826346718535106	-72.007170763929679	0	0
-19.570574146937695	-47.247545528965233	0	0
-15.247780937150711	-47.811980672433684	0	0
-12.98869477389616	-48.474468820184825	0	0
-15.469189501965438	-48.346508232434957	0	0
-18.092404173874815	-47.738913282548062	0	0
-25.074495122840549	-73.796431447154987	0	0
-10.701024693304227	-49.030280336153517	0	0
-10.776543031559857	-49.603899064544891	0	0
-8.2009750111628286	-50.38931373868639	0	0
-15.183065960128562	-76.446831903293315	0	0
-10.173211421630818	-77.27321249547478	0	0
-6.6751583865876087	-50.702861768014614	0	0
-2.3535742186925463	-50.129243039623233	0	0
-3.0729120945587953e-015	-50.18446292756861	0	0
-2.4290925569481776	-50.702861768014607	0	0
-5.1201805011846897	-50.794908030478553	0	0
-5.1201805011846906	-77.771635906899164	0	0
2.3535742186925401	-50.129243039623233	0	0
2.4290925569481714	-50.702861768014607	0	0
5.1201805011846826	-50.794908030478553	0	0
5.1201805011846817	-77.771635906899164	0	0
10.173211421630814	-77.27321249547478	0	0
6.6751583865876052	-50.702861768014607	0	0
10.70102469330423	-49.030280336153517	0	0
12.988694773896166	-48.474468820184825	0	0
10.776543031559862	-49.603899064544891	0	0
8.2009750111628321	-50.38931373868639	0	0
15.183065960128573	-76.446831903293315	0	0
15.247780937150718	-47.811980672433684	0	0
15.469189501965444	-48.346508232434957	0	0
18.092404173874822	-47.738913282548062	0	0
25.07449512284056	-73.796431447154987	0	0
29.826346718535103	-72.007170763929679	0	0
19.570574146937691	-47.247545528965233	0	0
23.026366456731751	-44.589985054144243	0	0
25.092231463784294	-43.461019770552802	0	0
23.247775021546474	-45.124512614145516	0	0
20.963247629251587	-46.549770987880954	0	0
34.451611567461889	-69.912302639841045	0	0
27.102876582891462	-42.2364108354517	0	0
27.455086746468112	-42.695420057197339	0	0
29.831660401226944	-41.429590486696277	0	0
43.320024339437246	-64.792122138656367	0	0
47.446865776939674	-61.833959342298883	0	0
31.132287621076909	-40.572387142377622	0	0
33.782499399002795	-37.110955979129457	0	0
35.485774046288661	-35.485774046288668	0	0
34.134709562579445	-37.569965200875096	0	0
32.296909564811571	-39.537938271385237	0	0
51.372336780452756	-58.613365487026421	0	0
37.11095597912945	-33.782499399002802	0	0
37.569965200875089	-34.134709562579452	0	0
39.537938271385229	-32.296909564811578	0	0
58.613365487026414	-51.372336780452763	0	0
61.833959342298861	-47.446865776939688	0	0
40.572387142377622	-31.132287621076923	0	0
42.2364108354517	-27.102876582891469	0	0
43.461019770552802	-25.092231463784302	0	0
42.695420057197339	-27.455086746468119	0	0
41.42959048669627	-29.831660401226952	0	0
64.792122138656367	-43.320024339437254	0	0
44.589985054144243	-23.026366456731758	0	0
45.124512614145516	-23.247775021546481	0	0
46.549770987880962	-20.963247629251594	0	0
69.912302639841045	-34.451611567461896	0	0
72.007170763929693	-29.826346718535088	0	0
47.247545528965233	-19.570574146937684	0	0
47.811980672433677	-15.247780937150726	0	0
48.474468820184818	-12.988694773896174	0	0
48.34650823243495	-15.469189501965452	0	0
47.738913282548047	-18.092404173874829	0	0
73.796431447154973	-25.07449512284057	0	0
49.03028033615351	-10.701024693304241	0	0
49.603899064544883	-10.776543031559871	0	0
50.38931373868639	-8.2009750111628428	0	0
76.446831903293301	-15.183065960128584	0	0
77.27321249547478	-10.173211421630841	0	0
50.702861768014607	-6.6751583865876238	0	0
50.129243039623233	-2.3535742186925495	0	0
50.18446292756861	-6.1458241891175906e-015	0	0
50.702861768014607	-2.4290925569481807	0	0
50.794908030478553	-5.1201805011846924	0	0
77.771635906899164	-5.1201805011846959	0	0
50.129243039623233	2.353574218692537	0	0
50.702861768014607	2.4290925569481683	0	0
50.794908030478553	5.1201805011846799	0	0
77.771635906899164	5.1201805011846764	0	0
77.27321249547478	10.17321142163081	0	0
50.702861768014607	6.6751583865876016	0	0
49.030280336153517	10.701024693304205	0	0
48.474468820184832	12.988694773896141	0	0
49.603899064544891	10.776543031559836	0	0
50.389313738686397	8.2009750111628072	0	0
76.446831903293315	15.183065960128534	0	0
47.811980672433684	15.247780937150694	0	0
48.346508232434957	15.46918950196542	0	0
47.738913282548069	18.092404173874797	0	0
73.796431447154987	25.074495122840521	0	0
72.007170763929707	29.826346718535063	0	0
47.24754552896524	19.570574146937666	0	0
44.589985054144243	23.026366456731768	0	0
43.461019770552795	25.092231463784312	0	0
45.124512614145516	23.247775021546495	0	0
46.549770987880954	20.963247629251605	0	0
69.91230263984103	34.45161156746191	0	0
42.2364108354517	27.102876582891479	0	0
42.695420057197339	27.455086746468126	0	0
41.429590486696263	29.831660401226962	0	0
64.792122138656353	43.320024339437268	0	0
61.833959342298861	47.446865776939688	0	0
40.572387142377622	31.132287621076927	0	0
37.110955979129464	33.782499399002795	0	0
35.485774046288668	35.485774046288661	0	0
37.569965200875103	34.134709562579445	0	0
39.537938271385244	32.296909564811571	0	0
58.613365487026428	51.372336780452756	0	0
33.782499399002809	37.11095597912945	0	0
34.134709562579459	37.569965200875089	0	0
32.296909564811585	39.537938271385229	0	0
51.37233678045277	58.613365487026414	0	0
47.446865776939696	61.833959342298861	0	0
31.13228762107693	40.572387142377622	0	0
27.10287658289149	42.236410835451686	0	0
25.092231463784326	43.461019770552781	0	0
27.45508674646814	42.695420057197325	0	0
29.831660401226973	41.429590486696256	0	0
43.320024339437296	64.792122138656339	0	0
23.026366456731786	44.589985054144229	0	0
23.247775021546509	45.124512614145502	0	0
20.963247629251622	46.549770987880947	0	0
34.451611567461939	69.912302639841016	0	0
29.826346718535135	72.007170763929679	0	0
19.570574146937712	47.247545528965219	0	0
15.247780937150708	47.811980672433684	0	0
12.988694773896155	48.474468820184825	0	0
15.469189501965431	48.346508232434957	0	0
18.092404173874812	47.738913282548062	0	0
25.074495122840542	73.796431447154987	0	0
10.70102469330422	49.030280336153517	0	0
10.77654303155985	49.603899064544891	0	0
8.2009750111628215	50.38931373868639	0	0
15.183065960128555	76.446831903293315	0	0
10.17321142163081	77.27321249547478	0	0
6.6751583865876016	50.702861768014614	0	0
2.3535742186925526	50.129243039623233	0	0
9.2187362836763863e-015	50.18446292756861	0	0
2.4290925569481838	50.702861768014607	0	0
5.1201805011846959	50.794908030478553	0	0
5.1201805011847004	77.771635906899164	0	0
-2.3535742186925339	50.129243039623233	0	0
-2.4290925569481652	50.702861768014607	0	0
-5.1201805011846764	50.794908030478553	0	0
-5.1201805011846719	77.771635906899164	0	0
-10.173211421630805	77.27321249547478	0	0
-6.675158386587599	50.702861768014607	0	0
-10.701024693304246	49.03028033615351	0	0
-12.98869477389618	48.474468820184818	0	0
-10.776543031559877	49.603899064544883	0	0
-8.2009750111628481	50.38931373868639	0	0
-15.183065960128594	76.446831903293301	0	0
-15.247780937150731	47.811980672433677	0	0
-15.469189501965458	48.34650823243495	0	0
-18.092404173874833	47.738913282548047	0	0
-25.074495122840581	73.796431447154973	0	0
-29.82634671853512	72.007170763929679	0	0
-19.570574146937705	47.247545528965226	0	0
-23.026366456731768	44.589985054144243	0	0
-25.092231463784312	43.461019770552795	0	0
-23.247775021546495	45.124512614145516	0	0
-20.963247629251605	46.549770987880954	0	0
-34.45161156746191	69.91230263984103	0	0
-27.102876582891479	42.2364108354517	0	0
-27.455086746468126	42.695420057197339	0	0
-29.831660401226962	41.429590486696263	0	0
-43.320024339437268	64.792122138656353	0	0
-47.446865776939688	61.833959342298861	0	0
-31.132287621076927	40.572387142377622	0	0
-33.782499399002788	37.110955979129464	0	0
-35.485774046288654	35.485774046288668	0	0
-34.134709562579438	37.569965200875103	0	0
-32.296909564811564	39.537938271385244	0	0
-51.372336780452748	58.613365487026428	0	0
-37.110955979129443	33.782499399002809	0	0
-37.569965200875082	34.134709562579459	0	0
-39.537938271385222	32.296909564811585	0	0
-58.613365487026407	51.37233678045277	0	0
-61.833959342298854	47.446865776939696	0	0
-40.572387142377615	31.13228762107693	0	0
-42.236410835451686	27.10287658289149	0	0
-43.461019770552781	25.092231463784326	0	0
-42.695420057197325	27.45508674646814	0	0
-41.429590486696256	29.831660401226973	0	0
-64.792122138656339	43.320024339437296	0	0
-44.589985054144229	23.026366456731786	0	0
-45.124512614145502	23.247775021546509	0	0
-46.549770987880947	20.963247629251622	0	0
-69.912302639841016	34.451611567461939	0	0
-72.007170763929679	29.826346718535135	0	0
-47.247545528965219	19.570574146937712	0	0
-47.811980672433684	15.247780937150711	0	0
-48.474468820184825	12.988694773896157	0	0
-48.346508232434957	15.469189501965435	0	0
-47.738913282548062	18.092404173874812	0	0
-73.796431447154987	25.074495122840545	0	0
-49.030280336153517	10.701024693304223	0	0
-49.603899064544891	10.776543031559854	0	0
-50.38931373868639	8.200975011162825	0	0
-76.446831903293315	15.183065960128559	0	0
-47.516570561831081	4.6799737173544615	0	0
-47.743859236406024	0.50053687860920193	0	0
-46.490554827404381	0.50053687860920193	0	0
-43.227452513641254	0	0	0
-46.567333654041576	0	0	0
-47.516570561831081	-4.6799737173544615	0	0
-47.743859236406024	-0.50053687860920193	0	0
-46.490554827404381	-0.50053687860920193	0	0
-46.924124269539668	-8.8234456698842667	0	0
-45.694901753326384	-8.5789381091479022	0	0
-42.396849134708965	-8.4332576308231655	0	0
-45.672555395509953	-9.0848361179994566	0	0
-45.690535402739677	-13.86007238666495	0	0
-46.728824467882028	-9.8052840755620334	0	0
-45.499601951668744	-9.5607765148256689	0	0
-44.301121522346953	-17.808348149529422	0	0
-43.143219230864176	-17.328729316494375	0	0
-39.936958619956727	-16.542429900319163	0	0
-43.022606446593045	-17.82054707881899	0	0
-42.108638591668452	-22.507536246974048	0	0
-43.918027180884003	-18.73321970435768	0	0
-42.760124889401226	-18.253600871322632	0	0
-39.975651519405631	-26.108885796824861	0	0
-38.933566988355963	-25.412587174271323	0	0
-35.94231318234398	-24.015885865847459	0	0
-38.719322859289214	-25.871424409277441	0	0
-36.90853041431599	-30.290048111683678	0	0
-39.419484738837994	-26.941248205625502	0	0
-38.377400207788327	-26.244949583071964	0	0
-34.113939647177197	-33.406073604980165	0	0
-33.227719600681134	-32.519853558484101	0	0
-30.566424805815203	-30.566424805815195	0	0
-32.928077408549328	-32.928077408549328	0	0
-30.290048111683685	-36.90853041431599	0	0
-33.406073604980172	-34.11393964717719	0	0
-32.519853558484108	-33.227719600681127	0	0
-26.941248205625506	-39.419484738837994	0	0
-26.244949583071968	-38.377400207788327	0	0
-24.015885865847466	-35.94231318234398	0	0
-25.871424409277445	-38.719322859289214	0	0
-22.507536246974052	-42.108638591668452	0	0
-26.108885796824865	-39.975651519405631	0	0
-25.412587174271327	-38.933566988355963	0	0
-18.733219704357683	-43.918027180884003	0	0
-18.253600871322632	-42.760124889401226	0	0
-16.542429900319167	-39.936958619956727	0	0
-17.82054707881899	-43.022606446593045	0	0
-13.860072386664957	-45.690535402739684	0	0
-17.808348149529426	-44.301121522346953	0	0
-17.328729316494375	-43.143219230864176	0	0
-9.805284075562037	-46.728824467882028	0	0
-9.5607765148256743	-45.499601951668744	0	0
-8.433257630823169	-42.396849134708965	0	0
-9.0848361179994619	-45.672555395509953	0	0
-4.6799737173544642	-47.516570561831081	0	0
-8.8234456698842703	-46.924124269539668	0	0
-8.5789381091479076	-45.694901753326384	0	0
-0.50053687860920482	-47.743859236406024	0	0
-0.50053687860920482	-46.490554827404381	0	0
-2.6469180678062484e-015	-43.227452513641254	0	0
-2.8514268052124419e-015	-46.567333654041576	0	0
4.6799737173544589	-47.516570561831081	0	0
0.50053687860919904	-47.743859236406024	0	0
0.50053687860919904	-46.490554827404381	0	0
8.8234456698842543	-46.924124269539668	0	0
8.5789381091478898	-45.694901753326391	0	0
8.4332576308231531	-42.396849134708972	0	0
9.0848361179994441	-45.67255539550996	0	0
13.860072386664937	-45.690535402739691	0	0
9.805284075562021	-46.728824467882028	0	0
9.5607765148256565	-45.499601951668751	0	0
17.808348149529419	-44.301121522346953	0	0
17.328729316494371	-43.143219230864176	0	0
16.54242990031916	-39.936958619956727	0	0
17.820547078818986	-43.022606446593045	0	0
22.507536246974045	-42.108638591668452	0	0
18.733219704357676	-43.918027180884003	0	0
18.253600871322629	-42.760124889401226	0	0
26.108885796824865	-39.975651519405623	0	0
25.412587174271327	-38.933566988355956	0	0
24.015885865847466	-35.942313182343973	0	0
25.871424409277445	-38.719322859289214	0	0
30.290048111683685	-36.90853041431599	0	0
26.941248205625506	-39.419484738837987	0	0
26.244949583071968	-38.37740020778832	0	0
33.406073604980165	-34.113939647177197	0	0
32.519853558484101	-33.227719600681134	0	0
30.566424805815195	-30.566424805815203	0	0
32.928077408549328	-32.928077408549328	0	0
36.90853041431599	-30.290048111683685	0	0
34.11393964717719	-33.406073604980172	0	0
33.227719600681127	-32.519853558484108	0	0
39.419484738837994	-26.941248205625502	0	0
38.377400207788334	-26.244949583071964	0	0
35.94231318234398	-24.015885865847459	0	0
38.719322859289221	-25.871424409277441	0	0
42.108638591668459	-22.507536246974045	0	0
39.975651519405631	-26.108885796824861	0	0
38.93356698835597	-25.412587174271323	0	0
43.918027180884003	-18.733219704357687	0	0
42.760124889401226	-18.253600871322636	0	0
39.936958619956727	-16.542429900319167	0	0
43.022606446593045	-17.820547078818993	0	0
45.690535402739684	-13.860072386664957	0	0
44.301121522346953	-17.808348149529429	0	0
43.143219230864176	-17.328729316494378	0	0
46.728824467882028	-9.8052840755620299	0	0
45.499601951668744	-9.5607765148256654	0	0
42.396849134708965	-8.4332576308231602	0	0
45.672555395509953	-9.084836117999453	0	0
47.516570561831074	-4.6799737173544571	0	0
46.924124269539668	-8.8234456698842632	0	0
45.694901753326384	-8.5789381091478987	0	0
47.743859236406024	-0.50053687860920781	0	0
46.490554827404381	-0.50053687860920759	0	0
43.227452513641254	-5.2938361356124968e-015	0	0
46.567333654041576	-5.7028536104248837e-015	0	0
47.516570561831081	4.6799737173544553	0	0
47.743859236406024	0.50053687860919605	0	0
46.490554827404381	0.50053687860919627	0	0
46.924124269539668	8.8234456698842507	0	0
45.694901753326391	8.578938109147888	0	0
42.396849134708972	8.4332576308231495	0	0
45.67255539550996	9.0848361179994424	0	0
45.690535402739691	13.860072386664934	0	0
46.728824467882028	9.8052840755620174	0	0
45.499601951668751	9.5607765148256547	0	0
44.301121522346961	17.808348149529397	0	0
43.14321923086419	17.328729316494346	0	0
39.936958619956741	16.542429900319139	0	0
43.022606446593052	17.820547078818961	0	0
42.108638591668473	22.507536246974027	0	0
43.91802718088401	18.733219704357655	0	0
42.76012488940124	18.253600871322604	0	0
39.975651519405631	26.108885796824865	0	0
38.933566988355963	25.412587174271327	0	0
35.94231318234398	24.015885865847466	0	0
38.719322859289214	25.871424409277445	0	0
36.90853041431599	30.290048111683685	0	0
39.419484738837994	26.941248205625506	0	0
38.377400207788327	26.244949583071968	0	0
34.113939647177197	33.406073604980165	0	0