[Format]      =  4.0
[Frequency]   =  1
[Precision]   =  1e-008
[MinAngle]    =  18
[DoSmartMesh] =  1
[Depth]       =  1
[LengthUnits] =  millimeters
[ProblemType] =  planar
[Coordinates] =  cartesian
[ACSolver]    =  1
[PrevType]    =  0
[PrevSoln]    =  ""
[Comment]     =  "Add comments here."
[PointProps]   = 0
[BdryProps]   = 1
  <BeginBdry>
    <BdryName> = "BC:A=0"
    <BdryType> = 0
    <A_0> = 0
    <A_1> = 0
    <A_2> = 0
    <Phi> = 0
    <c0> = 0
    <c0i> = 0
    <c1> = 0
    <c1i> = 0
    <Mu_ssd> = 0
    <Sigma_ssd> = 0
    <innerangle> = 0
    <outerangle> = 0
  <EndBdry>
[BlockProps]  = 4
  <BeginBlock>
    <BlockName> = "Air"
    <Mu_x> = 1
    <Mu_y> = 1
    <H_c> = 0
    <H_cAngle> = 0
    <J_re> = 0
    <J_im> = 0
    <Sigma> = 0
    <d_lam> = 0
    <Phi_h> = 0
    <Phi_hx> = 0
    <Phi_hy> = 0
    <LamType> = 0
    <LamFill> = 1
    <NStrands> = 0
    <WireD> = 0
    <BHPoints> = 0
  <EndBlock>
  <BeginBlock>
    <BlockName> = "Copper"
    <Mu_x> = 1
    <Mu_y> = 1
    <H_c> = 0
    <H_cAngle> = 0
    <J_re> = 0
    <J_im> = 0
    <Sigma> = 58
    <d_lam> = 0
    <Phi_h> = 0
    <Phi_hx> = 0
    <Phi_hy> = 0
    <LamType> = 0
    <LamFill> = 1
    <NStrands> = 0
    <WireD> = 0
    <BHPoints> = 0
  <EndBlock>
  <BeginBlock>
    <BlockName> = "Aluminum"
    <Mu_x> = 1
    <Mu_y> = 1
    <H_c> = 0
    <H_cAngle> = 0
    <J_re> = 0
    <J_im> = 0
    <Sigma> = 9.9999999999999995e-007
    <d_lam> = 0
    <Phi_h> = 0
    <Phi_hx> = 0
    <Phi_hy> = 0
    <LamType> = 0
    <LamFill> = 1
    <NStrands> = 0
    <WireD> = 0
    <BHPoints> = 0
  <EndBlock>
  <BeginBlock>
    <BlockName> = "M19Gauge29"
    <Mu_x> = 0
    <Mu_y> = 0
    <H_c> = 0
    <H_cAngle> = 0
    <J_re> = 0
    <J_im> = 0
    <Sigma> = 0
    <d_lam> = 0.35560000000000003
    <Phi_h> = 0
    <Phi_hx> = 0
    <Phi_hy> = 0
    <LamType> = 0
    <LamFill> = 0.94999999999999996
    <NStrands> = 0
    <WireD> = 0
    <BHPoints> = 185
      0	0
      0.040393502519099997	3.7801784999999999
      0.080769420879899995	7.5603569999999998
      0.121110170924	11.3405355
      0.16139816849300001	15.120714
      0.18161589101100001	17.020108499999999
      0.20181362516000001	18.919502999999999
      0.22198914029700001	20.818897499999999
      0.242140205779	22.718292000000002
      0.25571683711400001	23.999402249999999
      0.26928064637900001	25.2805125
      0.28283094912200002	26.561622750000002
      0.296367060889	27.842732999999999
      0.30699838653700001	28.849908249999999
      0.31762018555799998	29.857083500000002
      0.32823212536800001	30.864258750000001
      0.33883387338499998	31.871434000000001
      0.34801899151999999	32.744836499999998
      0.35719597842200002	33.618239000000003
      0.36636461720800001	34.4916415
      0.37552469099399999	35.365043999999997
      0.38400030037600003	36.173929999999999
      0.392468205071	36.982816
      0.40092823279500001	37.791702000000001
      0.40938021126200003	38.600588000000002
      0.41756330690499999	39.384491500000003
      0.425738524201	40.168394999999997
      0.43390570633999997	40.952298499999998
      0.44206469651300001	41.736201999999999
      0.45022095744399998	42.520646249999999
      0.45836870094299997	43.305090499999999
      0.46650776987600001	44.089534749999999
      0.47463800710699999	44.873978999999999
      0.482955979122	45.677436
      0.49126435245299999	46.480893000000002
      0.49956295826199998	47.284350000000003
      0.50785162771000003	48.087806999999998
      0.51647926459799998	48.925164250000002
      0.52509573443400004	49.762521499999998
      0.53370084609400004	50.599878750000002
      0.54229440845300003	51.437235999999999
      0.55135899081899997	52.321732249999997
      0.560410248444	53.206228500000002
      0.56944795607499998	54.09072475
      0.57847188845599995	54.975220999999998
      0.58809195642199996	55.919663999999997
      0.59769578757800002	56.864106999999997
      0.60728310769500005	57.808549999999997
      0.61685364254599995	58.752992999999996
      0.62714704886700001	59.770655750000003
      0.63742030493900004	60.788318500000003
      0.64767306767999999	61.805981250000002
      0.65790499400900004	62.823644000000002
      0.66899515477100002	63.92905425
      0.68005988649500004	65.034464499999999
      0.69109874948399996	66.139874750000004
      0.70211130403800004	67.245284999999996
      0.71413296428799999	68.455065250000004
      0.72612201060100001	69.664845499999998
      0.73807786660399999	70.874625750000007
      0.74999995592199997	72.084406000000001
      0.76297300785300004	73.418329499999999
      0.775634769861	74.752252999999996
      0.78797914050899998	76.086176499999993
      0.80000001836099999	77.420100000000005
      0.81301167345299996	78.90258025
      0.82568683512300001	80.385060499999994
      0.83801860418399998	81.867540750000003
      0.85000008144500006	83.350020999999998
      0.86305669685599995	85.012418749999995
      0.87574779662799995	86.674816500000006
      0.888065056114	88.337214250000002
      0.90000015066200001	89.999611999999999
      0.91311257847299998	91.884047249999995
      0.92582384683399999	93.768482500000005
      0.938123285882	95.65291775
      0.95000022575499998	97.537352999999996
      0.96318596803099998	99.703366250000002
      0.97592415289699996	101.86937949999999
      0.98820039197999998	104.03539275
      1.0000002969099999	106.20140600000001
      1.0132866972900001	108.7381705
      1.02606225208	111.274935
      1.03830683818	113.8116995
      1.05000033252	116.34846400000001
      1.06342863335	119.39818025
      1.0762571219199999	122.4478965
      1.08845720079	125.49761275
      1.10000027255	128.54732899999999
      1.11362907216	132.3518545
      1.12653208745	136.15638000000001
      1.1386691386500001	139.9609055
      1.1500000459899999	143.76543100000001
      1.16390387023	148.76261550000001
      1.17690759696	153.75980000000001
      1.1889574522599999	158.75698449999999
      1.19999966227	163.75416899999999
      1.21425500668	170.78266625000001
      1.22738361095	177.81116349999999
      1.2393201541600001	184.83966075000001
      1.24999931536	191.86815799999999
      1.2646530576899999	202.60949525000001
      1.2779162158599999	213.3508325
      1.2897209086100001	224.09216975000001
      1.2999992547400001	234.833507
      1.3150287246800001	252.75257250000001
      1.3284087368099999	270.67163799999997
      1.34008406116	288.59070350000002
      1.34999946779	306.50976900000001
      1.3652842322100001	338.69612725000002
      1.37872905807	370.88248549999997
      1.3903091544999999	403.06884374999998
      1.39999973061	435.255202
      1.4153113290399999	495.16939350000001
      1.4287325819500001	555.08358499999997
      1.440287455	614.99777649999999
      1.4499999138499999	674.911968
      1.4650178894400001	783.26536825000005
      1.4783013058300001	891.61876849999999
      1.48993405237	999.97216875000004
      1.50000001839	1108.3255690000001
      1.5144185297499999	1284.51554375
      1.5274764870899999	1460.7055184999999
      1.53929622758	1636.8954932500001
      1.55000008838	1813.085468
      1.56379869711	2060.1184562499998
      1.5766804428000001	2307.1514444999998
      1.5887220049599999	2554.1844327499998
      1.60000006307	2801.2174209999998
      1.6135017779800001	3114.3263449999999
      1.6263280705300001	3427.4352690000001
      1.6384903429	3740.5441930000002
      1.6499999972799999	4053.6531169999998
      1.6634154945899999	4438.0165602500001
      1.6762083086999999	4822.3800035000004
      1.6883969722200001	5206.7434467499997
      1.7000000177600001	5591.10689
      1.7133842241299999	6055.4097707499996
      1.7261879114400001	6519.7126515
      1.7383976459999999	6984.0155322500004
      1.74999999411	7448.318413
      1.7634359308900001	8013.4427272499997
      1.77624916625	8578.5670415000004
      1.7884378189200001	9143.6913557499993
      1.8000000076	9708.81567
      1.8135056489000001	10403.344656200001
      1.8263576964499999	11097.873642500001
      1.83853090176	11792.4026288
      1.8500000163700001	12486.931615
      1.86383276338	13375.569622200001
      1.8768406764900001	14264.207629500001
      1.888928261	15152.845636800001
      1.90000002223	16041.483644
      1.91483103513	17343.467889
      1.92828510969	18645.452133999999
      1.9400966255700001	19947.436378999999
      1.94999996248	21249.420623999998
      1.9660187278900001	23765.439437500001
      1.9797604686600001	26281.458251
      1.9911219600800001	28797.477064499999
      1.9999999774199999	31313.495878000002
      2.01558566376	36882.483627699999
      2.02890239705	42451.471377499998
      2.0402679269699999	48020.459127299997
      2.0500000032100001	53589.446877000002
      2.0635336891599998	62311.456308000001
      2.0761276184200002	71033.465739000007
      2.0881577419299999	79755.475170000005
      2.1000000106700001	88477.484601000004
      2.1122908943900001	97440.466085699998
      2.1247406622499998	106403.44757
      2.1373201021599999	115366.429055
      2.1500000020300001	124329.41054
      2.1626625654099998	133239.20022999999
      2.1752886017100002	142148.98991999999
      2.1877703359999998	151058.77961
      2.1999999933200001	159968.5693
      2.2126403241600001	169414.32804299999
      2.22508058305	178860.086786
      2.2374805501599999	188305.84552900001
      2.25000000567	197751.604272
      2.2622556443600002	206819.891041
      2.2747207343800002	215888.17780999999
      2.2873254586399998	224956.46457800001
      2.2999999999999998	234024.75134700001
  <EndBlock>
[CircuitProps]  = 9
  <BeginCircuit>
    <CircuitName> = "rA"
    <TotalAmps_re> = 0
    <TotalAmps_im> = 0
    <CircuitType> = 0
  <EndCircuit>
  <BeginCircuit>
    <CircuitName> = "rB"
    <TotalAmps_re> = 0
    <TotalAmps_im> = 0
    <CircuitType> = 0
  <EndCircuit>
  <BeginCircuit>
    <CircuitName> = "rC"
    <TotalAmps_re> = 0
    <TotalAmps_im> = 0
    <CircuitType> = 0
  <EndCircuit>
  <BeginCircuit>
    <CircuitName> = "dU"
    <TotalAmps_re> = 20.093900000000001
    <TotalAmps_im> = 0
    <CircuitType> = 1
  <EndCircuit>
  <BeginCircuit>
    <CircuitName> = "dV"
    <TotalAmps_re> = -10.046950000000001
    <TotalAmps_im> = -17.401827861104131
    <CircuitType> = 1
  <EndCircuit>
  <BeginCircuit>
    <CircuitName> = "dW"
    <TotalAmps_re> = -10.046950000000001
    <TotalAmps_im> = 17.401827861104131
    <CircuitType> = 1
  <EndCircuit>
  <BeginCircuit>
    <CircuitName> = "bU"
    <TotalAmps_re> = 20.093900000000001
    <TotalAmps_im> = 0
    <CircuitType> = 1
  <EndCircuit>
  <BeginCircuit>
    <CircuitName> = "bV"
    <TotalAmps_re> = -10.046950000000001
    <TotalAmps_im> = -17.401827861104131
    <CircuitType> = 1
  <EndCircuit>
  <BeginCircuit>
    <CircuitName> = "bW"
    <TotalAmps_re> = -10.046950000000001
    <TotalAmps_im> = 17.401827861104131
    <CircuitType> = 1
  <EndCircuit>
[NumPoints] = 428
-0.013498388349408247	0.0011809559564436309	0	0
-0.01354995	0	0	0
-0.017027702982343278	0.0018032693496392691	0	0
-0.018577663218582549	0.003612255	0	0
-0.031568796197496585	0.003612255	0	0
-0.031292059542334771	0.0055176343792494005	0	0
-0.017027702982343278	0.0030024434552771147	0	0
-0.018238023563293133	0.003215855629005318	0	0
-0.020486116109323167	0.0036122549999999995	0	0
-0.013498388349408247	-0.0011809559564436309	0	0
-0.017027702982343278	-0.0018032693496392691	0	0
-0.018577663218582549	-0.003612255	0	0
-0.031568796197496585	-0.003612255	0	0
-0.031292059542334771	-0.0055176343792494005	0	0
-0.017027702982343278	-0.0030024434552771147	0	0
-0.018238023563293133	-0.003215855629005318	0	0
-0.020486116109323167	-0.0036122549999999995	0	0
-0.013088246649925561	-0.003506985120186901	0	0
-0.01273278802701802	-0.004634355841055645	0	0
-0.016617561282860592	-0.0041292985133825387	0	0
-0.018692757010776676	-0.002959525668778606	0	0
-0.03090042880671065	-0.0074027548321896047	0	0
-0.012280425198957256	-0.0057264563156733898	0	0
-0.015384052400023775	-0.0075183363156733898	0	0
-0.016221829065118945	-0.0097483444045726089	0	0
-0.02842950086105292	-0.014191573567983609	0	0
-0.027517775339915739	-0.015887394999999995	0	0
-0.014973910700541087	-0.0086451913737788152	0	0
-0.016038248756999017	-0.0092596872371835635	0	0
-0.018015188163665444	-0.010401073735794002	0	0
-0.011099469242513624	-0.0077719320337348557	0	0
-0.010379863902039996	-0.008709739971872122	0	0
-0.014203096443580143	-0.0095638120337348566	0	0
-0.016553228431759239	-0.0091743438639554711	0	0
-0.026505013660076029	-0.017524883178591598	0	0
-0.0095812615297386598	-0.0095812615297386581	0	0
-0.011884858053828891	-0.012326580963210727	0	0
-0.01190940291770274	-0.014708639603712961	0	0
-0.021861188146019533	-0.023059178918349084	0	0
-0.020424441312391746	-0.024340901310772465	0	0
-0.011114043796867947	-0.01324520162316677	0	0
-0.011904024451268357	-0.014186663906128383	0	0
-0.013371362649608939	-0.015935369475551488	0	0
-0.0077719320337348591	-0.011099469242513624	0	0
-0.0067749750000000017	-0.011734600920008954	0	0
-0.01007552855782509	-0.013844788675985693	0	0
-0.012417136204238633	-0.014282600790244265	0	0
-0.018912702693695653	-0.025533251973925628	0	0
-0.0057264563156733915	-0.012280425198957255	0	0
-0.0069521744245181908	-0.015648058025624963	0	0
-0.0061605270143439191	-0.017894855790244267	0	0
-0.012656093503800939	-0.029145506973925629	0	0
-0.010867618229943027	-0.029858535690021868	0	0
-0.0059136591854753329	-0.016247645078443885	0	0
-0.0063339991120247782	-0.017402519535133699	0	0
-0.0071147534597142282	-0.01954762447555149	0	0
-0.0035069851201869019	-0.013088246649925561	0	0
-0.0023529241249780238	-0.013344095812927769	0	0
-0.0047327032290317012	-0.016455879476593268	0	0
-0.0067833540930739341	-0.017668165272491567	0	0
-0.0090392406606911186	-0.03046193375053869	0	0
-0.0011809559564436316	-0.013498388349408247	0	0
-0.0011809559564436322	-0.017082148349408247	0	0
0.0003313993666402928	-0.018922688268528085	0	0
-0.0019244872009768908	-0.031716456746575208	0	0
-2.6020852139652106e-018	-0.03177478999999999	0	0
-1.3010426069826053e-018	-0.01729038274755763	0	0
-1.3010426069826053e-018	-0.018519374474367127	0	0
-1.3010426069826053e-018	-0.020802147471588005	0	0
0.0011809559564436303	-0.013498388349408247	0	0
0.0023529241249780224	-0.013344095812927769	0	0
0.0011809559564436305	-0.017082148349408247	0	0
-0.00033139936664029496	-0.018922688268528082	0	0
0.0019244872009768874	-0.031716456746575208	0	0
0.003506985120186901	-0.013088246649925561	0	0
0.0047327032290316994	-0.016455879476593268	0	0
0.0067833540930739324	-0.017668165272491571	0	0
0.0090392406606911151	-0.03046193375053869	0	0
0.010867618229943022	-0.029858535690021865	0	0
0.0059136591854753295	-0.016247645078443885	0	0
0.0063339991120247756	-0.017402519535133699	0	0
0.0071147534597142256	-0.01954762447555149	0	0
0.005726456315673388	-0.012280425198957256	0	0
0.0067749749999999973	-0.011734600920008956	0	0
0.0069521744245181856	-0.015648058025624963	0	0
0.0061605270143439139	-0.017894855790244267	0	0
0.012656093503800928	-0.029145506973925629	0	0
0.0077719320337348539	-0.011099469242513626	0	0
0.010075528557825085	-0.013844788675985695	0	0
0.012417136204238628	-0.014282600790244267	0	0
0.018912702693695643	-0.025533251973925634	0	0
0.020424441312391742	-0.024340901310772472	0	0
0.011114043796867944	-0.013245201623166773	0	0
0.011904024451268353	-0.014186663906128386	0	0
0.013371362649608936	-0.015935369475551492	0	0
0.0095812615297386581	-0.0095812615297386616	0	0
0.010379863902039994	-0.0087097399718721255	0	0
0.011884858053828889	-0.01232658096321073	0	0
0.011909402917702736	-0.014708639603712964	0	0
0.021861188146019526	-0.023059178918349091	0	0
0.011099469242513623	-0.0077719320337348591	0	0
0.014203096443580141	-0.0095638120337348601	0	0
0.016553228431759239	-0.0091743438639554781	0	0
0.026505013660076029	-0.017524883178591605	0	0
0.027517775339915732	-0.015887395000000002	0	0
0.014973910700541087	-0.0086451913737788169	0	0
0.016038248756999017	-0.009259687237183567	0	0
0.01801518816366544	-0.010401073735794006	0	0
0.012280425198957255	-0.0057264563156733924	0	0
0.012732788027018018	-0.0046343558410556467	0	0
0.015384052400023773	-0.0075183363156733924	0	0
0.016221829065118942	-0.0097483444045726106	0	0
0.028429500861052916	-0.014191573567983614	0	0
0.013088246649925559	-0.0035069851201869036	0	0
0.016617561282860592	-0.0041292985133825431	0	0
0.018692757010776672	-0.0029595256687786091	0	0
0.030900428806710647	-0.0074027548321896107	0	0
0.031292059542334771	-0.0055176343792494049	0	0
0.017027702982343278	-0.0030024434552771177	0	0
0.018238023563293133	-0.0032158556290053206	0	0
0.020486116109323167	-0.003612255000000003	0	0
0.013498388349408247	-0.0011809559564436327	0	0
0.01354995	-1.6593902896106678e-018	0	0
0.017027702982343278	-0.0018032693496392712	0	0
0.018577663218582549	-0.0036122550000000021	0	0
0.031568796197496585	-0.0036122550000000039	0	0
0.013498388349408247	0.0011809559564436292	0	0
0.017027702982343278	0.0018032693496392669	0	0
0.018577663218582549	0.0036122549999999978	0	0
0.031568796197496585	0.0036122549999999961	0	0
0.031292059542334771	0.0055176343792493971	0	0
0.017027702982343278	0.0030024434552771125	0	0
0.018238023563293133	0.0032158556290053158	0	0
0.020486116109323167	0.0036122549999999969	0	0
0.013088246649925561	0.0035069851201869002	0	0
0.01273278802701802	0.0046343558410556441	0	0
0.016617561282860592	0.0041292985133825379	0	0
0.018692757010776672	0.0029595256687786043	0	0
0.030900428806710647	0.0074027548321896029	0	0
0.012280425198957256	0.0057264563156733889	0	0
0.015384052400023775	0.0075183363156733889	0	0
0.016221829065118949	0.0097483444045726071	0	0
0.028429500861052923	0.014191573567983607	0	0
0.027517775339915739	0.015887394999999995	0	0
0.014973910700541089	0.0086451913737788134	0	0
0.016038248756999017	0.0092596872371835635	0	0
0.018015188163665444	0.010401073735794001	0	0
0.011099469242513624	0.0077719320337348557	0	0
0.010379863902039996	0.008709739971872122	0	0
0.014203096443580143	0.0095638120337348566	0	0
0.016553228431759239	0.0091743438639554711	0	0
0.026505013660076029	0.017524883178591598	0	0
0.0095812615297386598	0.0095812615297386581	0	0
0.011884858053828891	0.012326580963210727	0	0
0.01190940291770274	0.014708639603712961	0	0
0.021861188146019533	0.023059178918349084	0	0
0.020424441312391746	0.024340901310772465	0	0
0.011114043796867947	0.01324520162316677	0	0
0.011904024451268357	0.014186663906128383	0	0
0.013371362649608939	0.015935369475551488	0	0
0.0077719320337348626	0.011099469242513619	0	0
0.006774975000000006	0.011734600920008951	0	0
0.010075528557825095	0.013844788675985688	0	0
0.012417136204238639	0.014282600790244262	0	0
0.018912702693695663	0.025533251973925621	0	0
0.0057264563156733967	0.012280425198957253	0	0
0.0069521744245181968	0.01564805802562496	0	0
0.0061605270143439269	0.017894855790244264	0	0
0.012656093503800949	0.029145506973925622	0	0
0.010867618229943039	0.029858535690021861	0	0
0.0059136591854753381	0.016247645078443881	0	0
0.006333999112024786	0.017402519535133699	0	0
0.0071147534597142369	0.019547624475551483	0	0
0.003506985120186901	0.013088246649925561	0	0
0.0023529241249780224	0.013344095812927769	0	0
0.0047327032290316994	0.016455879476593268	0	0
0.0067833540930739324	0.017668165272491567	0	0
0.0090392406606911151	0.03046193375053869	0	0
0.0011809559564436307	0.013498388349408247	0	0
0.0011809559564436309	0.017082148349408247	0	0
-0.00033139936664029453	0.018922688268528085	0	0
0.0019244872009768882	0.031716456746575208	0	0
0	0.03177478999999999	0	0
0	0.01729038274755763	0	0
-4.3368086899420177e-019	0.018519374474367127	0	0
-4.3368086899420177e-019	0.020802147471588005	0	0
-0.0011809559564436255	0.013498388349408249	0	0
-0.0023529241249780177	0.013344095812927769	0	0
-0.0011809559564436246	0.017082148349408247	0	0
0.00033139936664030104	0.018922688268528082	0	0
-0.001924487200976877	0.031716456746575208	0	0
-0.0035069851201868958	0.013088246649925563	0	0
-0.0047327032290316933	0.016455879476593268	0	0
-0.0067833540930739263	0.017668165272491571	0	0
-0.0090392406606911047	0.030461933750538697	0	0
-0.010867618229943012	0.029858535690021872	0	0
-0.0059136591854753243	0.016247645078443885	0	0
-0.0063339991120247695	0.017402519535133703	0	0
-0.0071147534597142187	0.019547624475551494	0	0
-0.0057264563156733915	0.012280425198957255	0	0
-0.0067749750000000017	0.011734600920008954	0	0
-0.0069521744245181908	0.015648058025624963	0	0
-0.0061605270143439191	0.017894855790244267	0	0
-0.012656093503800939	0.029145506973925629	0	0
-0.0077719320337348591	0.011099469242513624	0	0
-0.01007552855782509	0.013844788675985693	0	0
-0.012417136204238633	0.014282600790244265	0	0
-0.018912702693695653	0.025533251973925628	0	0
-0.020424441312391753	0.024340901310772465	0	0
-0.011114043796867949	0.01324520162316677	0	0
-0.011904024451268359	0.014186663906128381	0	0
-0.013371362649608943	0.015935369475551488	0	0
-0.0095812615297386564	0.0095812615297386633	0	0
-0.010379863902039993	0.0087097399718721272	0	0
-0.011884858053828887	0.012326580963210732	0	0
-0.011909402917702734	0.014708639603712966	0	0
-0.021861188146019523	0.023059178918349094	0	0
-0.011099469242513621	0.0077719320337348609	0	0
-0.01420309644358014	0.0095638120337348618	0	0
-0.016553228431759236	0.0091743438639554798	0	0
-0.026505013660076026	0.017524883178591608	0	0
-0.027517775339915729	0.015887395000000006	0	0
-0.014973910700541085	0.0086451913737788204	0	0
-0.016038248756999014	0.0092596872371835705	0	0
-0.018015188163665437	0.010401073735794008	0	0
-0.012280425198957256	0.005726456315673388	0	0
-0.01273278802701802	0.0046343558410556433	0	0
-0.015384052400023775	0.0075183363156733881	0	0
-0.016221829065118949	0.0097483444045726071	0	0
-0.028429500861052923	0.014191573567983605	0	0
-0.013088246649925561	0.0035069851201868993	0	0
-0.016617561282860592	0.004129298513382537	0	0
-0.018692757010776672	0.0029595256687786034	0	0
-0.030900428806710647	0.0074027548321896012	0	0
-0.009317281883351302	0.002496558156297111	0	0
-0.0095218238849169544	0.001542535	0	0
-180.00514121339054	0.001542535	0	0
-0.015549005005484244	0.001542535	0	0
179.99485877999999	0	0	0
-180.00514122000001	0	0	0
-0.009317281883351302	-0.002496558156297111	0	0
-0.0095218238849169544	-0.001542535	0	0
-0.015549005005484244	-0.001542535	0	0
-0.011734600920008956	-0.0067749749999999991	0	0
-0.015648058025624963	-0.0069521744245181873	0	0
-0.017894855790244267	-0.0061605270143439157	0	0
-0.016247645078443885	-0.0059136591854753295	0	0
-0.017402519535133703	-0.0063339991120247748	0	0
-0.013844788675985695	-0.010075528557825088	0	0
-0.014282600790244267	-0.01241713620423863	0	0
-0.013245201623166772	-0.011114043796867945	0	0
-0.014186663906128386	-0.011904024451268355	0	0
-0.0087097399718721255	-0.010379863902039996	0	0
-0.01232658096321073	-0.011884858053828891	0	0
-0.014708639603712964	-0.01190940291770274	0	0
-0.0095638120337348601	-0.014203096443580143	0	0
-0.0091743438639554746	-0.016553228431759236	0	0
-0.0086451913737788152	-0.014973910700541087	0	0
-0.0092596872371835635	-0.016038248756999017	0	0
-0.0046343558410556476	-0.012732788027018018	0	0
-0.0075183363156733915	-0.015384052400023773	0	0
-0.0097483444045726106	-0.016221829065118942	0	0
-0.0041292985133825405	-0.016617561282860589	0	0
-0.0029595256687786073	-0.018692757010776672	0	0
-0.003002443455277116	-0.017027702982343278	0	0
-0.0032158556290053193	-0.018238023563293133	0	0
-2.6020852139652106e-018	-0.013549950000000002	0	0
-0.0018032693496392721	-0.017027702982343278	0	0
-0.0036122550000000026	-0.018577663218582549	0	0
0.001803269349639266	-0.017027702982343282	0	0
0.0036122549999999965	-0.018577663218582553	0	0
0.0030024434552771108	-0.017027702982343282	0	0
0.0032158556290053132	-0.018238023563293133	0	0
0.0046343558410556433	-0.01273278802701802	0	0
0.0041292985133825361	-0.016617561282860592	0	0
0.002959525668778603	-0.018692757010776676	0	0
0.0075183363156733872	-0.015384052400023777	0	0
0.0097483444045726071	-0.016221829065118952	0	0
0.0086451913737788117	-0.01497391070054109	0	0
0.0092596872371835601	-0.016038248756999017	0	0
0.008709739971872122	-0.010379863902039998	0	0
0.0095638120337348548	-0.014203096443580145	0	0
0.0091743438639554711	-0.016553228431759243	0	0
0.012326580963210727	-0.011884858053828894	0	0
0.014708639603712961	-0.011909402917702743	0	0
0.013245201623166768	-0.011114043796867951	0	0
0.014186663906128379	-0.011904024451268357	0	0
0.011734600920008952	-0.0067749750000000043	0	0
0.01384478867598569	-0.010075528557825092	0	0
0.014282600790244262	-0.012417136204238635	0	0
0.01564805802562496	-0.0069521744245181942	0	0
0.017894855790244264	-0.0061605270143439217	0	0
0.016247645078443881	-0.0059136591854753373	0	0
0.017402519535133699	-0.0063339991120247817	0	0
0.013344095812927767	-0.0023529241249780272	0	0
0.016455879476593268	-0.0047327032290317046	0	0
0.017668165272491567	-0.0067833540930739384	0	0
0.017082148349408247	-0.001180955956443637	0	0
0.018922688268528085	0.00033139936664028716	0	0
0.01729038274755763	-3.4694469519536142e-018	0	0
0.018519374474367127	-5.2041704279304213e-018	0	0
0.013344095812927769	0.0023529241249780194	0	0
0.017082148349408247	0.0011809559564436266	0	0
0.018922688268528078	-0.0003313993666402993	0	0
0.016455879476593271	0.0047327032290316951	0	0
0.017668165272491567	0.0067833540930739289	0	0
0.016247645078443888	0.005913659185475326	0	0
0.017402519535133706	0.0063339991120247722	0	0
0.011734600920008956	0.0067749749999999973	0	0
0.015648058025624963	0.0069521744245181856	0	0
0.017894855790244267	0.0061605270143439139	0	0
0.013844788675985696	0.010075528557825085	0	0
0.014282600790244267	0.012417136204238628	0	0
0.013245201623166773	0.011114043796867944	0	0
0.014186663906128386	0.011904024451268353	0	0
0.0087097399718721255	0.010379863902039994	0	0
0.01232658096321073	0.011884858053828889	0	0
0.014708639603712962	0.011909402917702736	0	0
0.0095638120337348601	0.014203096443580143	0	0
0.0091743438639554781	0.016553228431759239	0	0
0.0086451913737788169	0.014973910700541087	0	0
0.0092596872371835635	0.016038248756999017	0	0
0.0046343558410556476	0.012732788027018018	0	0
0.0075183363156733915	0.015384052400023773	0	0
0.0097483444045726106	0.016221829065118942	0	0
0.0041292985133825405	0.016617561282860589	0	0
0.0029595256687786073	0.018692757010776672	0	0
0.003002443455277116	0.017027702982343278	0	0
0.0032158556290053193	0.018238023563293133	0	0
8.6736173798840355e-018	0.01354995	0	0
0.0018032693496392782	0.017027702982343278	0	0
0.0036122550000000095	0.018577663218582549	0	0
-0.0018032693496392591	0.017027702982343282	0	0
-0.0036122549999999878	0.018577663218582553	0	0
-0.0030024434552771047	0.017027702982343278	0	0
-0.0032158556290053063	0.018238023563293137	0	0
-0.004634355841055645	0.012732788027018018	0	0
-0.0041292985133825379	0.016617561282860592	0	0
-0.0029595256687786047	0.018692757010776672	0	0
-0.0075183363156733889	0.015384052400023775	0	0
-0.0097483444045726089	0.016221829065118949	0	0
-0.0086451913737788134	0.01497391070054109	0	0
-0.0092596872371835618	0.016038248756999017	0	0
-0.0087097399718721186	0.01037986390204	0	0
-0.0095638120337348496	0.014203096443580148	0	0
-0.0091743438639554659	0.016553228431759243	0	0
-0.012326580963210721	0.011884858053828898	0	0
-0.014708639603712955	0.011909402917702747	0	0
-0.013245201623166763	0.011114043796867952	0	0
-0.014186663906128376	0.011904024451268364	0	0
-0.011734600920008956	0.0067749749999999999	0	0
-0.013844788675985695	0.01007552855782509	0	0
-0.014282600790244267	0.012417136204238633	0	0
-0.015648058025624963	0.0069521744245181899	0	0
-0.017894855790244267	0.0061605270143439174	0	0
-0.016247645078443885	0.0059136591854753312	0	0
-0.017402519535133699	0.0063339991120247756	0	0
-0.013344095812927767	0.002352924124978029	0	0
-0.016455879476593264	0.0047327032290317072	0	0
-0.017668165272491564	0.006783354093073941	0	0
-0.017082148349408244	0.0011809559564436379	0	0
-0.018922688268528082	-0.00033139936664028369	0	0
-0.01729038274755763	7.8062556418956319e-018	0	0
-0.018519374474367127	1.0408340855860843e-017	0	0
-0.013344095812927769	-0.0023529241249780238	0	0
-0.017082148349408247	-0.0011809559564436318	0	0
-0.018922688268528085	0.0003313993666402941	0	0
-0.016455879476593268	-0.0047327032290317003	0	0
-0.017668165272491564	-0.0067833540930739332	0	0
-0.0090174088746995187	-0.0034250374462318472	0	0
-0.014237100838320752	-0.0064386280065154922	0	0
-0.0068207237270541919	-0.0068207237270541893	0	0
-0.0074748738746995185	-0.0060967864386851055	0	0
-0.012694565838320751	-0.0091103769989687514	0	0
-0.0060967864386851072	-0.0074748738746995159	0	0
-0.0091103769989687531	-0.012694565838320749	0	0
-0.0024965581562971127	-0.0093172818833513003	0	0
-0.0034250374462318489	-0.009017408874699517	0	0
-0.0064386280065154948	-0.01423710083832075	0	0
-0.0015425350000000007	-0.0095218238849169544	0	0
-0.0015425350000000009	-0.015549005005484244	0	0
0.0024965581562971105	-0.009317281883351302	0	0
0.0015425349999999994	-0.0095218238849169544	0	0
0.0015425349999999992	-0.015549005005484244	0	0
0.0034250374462318463	-0.0090174088746995187	0	0
0.0064386280065154896	-0.014237100838320752	0	0
0.0068207237270541884	-0.0068207237270541919	0	0
0.0060967864386851046	-0.0074748738746995185	0	0
0.0091103769989687479	-0.012694565838320751	0	0
0.0074748738746995185	-0.0060967864386851055	0	0
0.012694565838320751	-0.0091103769989687514	0	0
0.009317281883351302	-0.002496558156297111	0	0
0.0090174088746995187	-0.0034250374462318472	0	0
0.014237100838320752	-0.0064386280065154922	0	0
0.0095218238849169544	-0.0015425350000000011	0	0
0.015549005005484244	-0.001542535000000002	0	0
0.009317281883351302	0.0024965581562971097	0	0
0.0095218238849169544	0.001542534999999999	0	0
0.015549005005484244	0.0015425349999999981	0	0
0.009017408874699517	0.0034250374462318489	0	0
0.01423710083832075	0.0064386280065154948	0	0
0.0068207237270541893	0.006820723727054191	0	0
0.0074748738746995159	0.0060967864386851072	0	0